# freq opt b3lyp/6-311++G** EmpiricalDispersion=GD3BJ symmetry=loose

Title Card Required

0 1
 C                  0.00000000    2.91711118    0.72093865
 C                  0.00000000    3.76890316   -0.41261791
 C                  0.00000000    5.16664330   -0.24170089
 C                  0.00000000    5.68119438    1.04670848
 C                  0.00000000    4.82088319    2.16593732
 C                  0.00000000    3.43742021    2.02315912
 C                  0.00000000    1.64369220   -1.14367211
 C                  0.00000000    2.94696399   -1.59575966
 H                  0.00000000    5.82994154   -1.10229960
 H                  0.00000000    6.75603799    1.20074690
 H                  0.00000000    5.24819255    3.16464553
 H                  0.00000000    2.79869700    2.89973048
 P                  0.00000000   -0.00000000   -1.89237145
 C                 -1.42347920   -0.82184610   -1.14367211
 C                 -2.55214568   -1.47348199   -1.59575966
 C                 -2.52629239   -1.45855559    0.72093865
 C                 -3.26396588   -1.88445158   -0.41261791
 C                 -2.97689322   -1.71871010    2.02315912
 C                 -4.47444435   -2.58332165   -0.24170089
 C                 -4.17500731   -2.41044160    2.16593732
 H                 -2.42374270   -1.39934850    2.89973048
 C                 -4.92005866   -2.84059719    1.04670848
 H                 -5.04887748   -2.91497077   -1.10229960
 H                 -4.54506807   -2.62409628    3.16464553
 H                 -5.85090053   -3.37801899    1.20074690
 C                  1.42347920   -0.82184610   -1.14367211
 C                  2.55214568   -1.47348199   -1.59575966
 C                  2.52629239   -1.45855559    0.72093865
 C                  3.26396588   -1.88445158   -0.41261791
 C                  2.97689322   -1.71871010    2.02315912
 C                  4.47444435   -2.58332165   -0.24170089
 C                  4.17500731   -2.41044160    2.16593732
 H                  2.42374270   -1.39934850    2.89973048
 C                  4.92005866   -2.84059719    1.04670848
 H                  5.04887748   -2.91497077   -1.10229960
 H                  4.54506807   -2.62409628    3.16464553
 H                  5.85090053   -3.37801899    1.20074690
 Si                 0.00000000   -0.00000000    1.07378779
 N                  1.36897716   -0.79037933    0.27606597
 N                 -0.00000000    1.58075866    0.27606597
 C                  3.01006562   -1.73786219   -2.99602260
 H                  2.33630390   -1.34886569   -3.76139902
 H                  4.00137500   -1.31699044   -3.16227527
 H                  3.14123468   -2.80679718   -3.16227527
 C                 -0.00000000    3.47572439   -2.99602260
 H                 -0.86014032    4.12378762   -3.16227527
 H                  0.86014032    4.12378762   -3.16227527
 H                 -0.00000000    2.69773137   -3.76139902
 C                 -3.01006562   -1.73786219   -2.99602260
 H                 -4.00137500   -1.31699044   -3.16227527
 H                 -2.33630390   -1.34886569   -3.76139902
 H                 -3.14123468   -2.80679718   -3.16227527
 C                  0.00000000   -0.00000000    2.92168786
 H                  0.88953525    0.51357342    3.31018671
 H                 -0.88953525    0.51357342    3.31018671
 H                  0.00000000   -1.02714683    3.31018671
 N                 -1.36897716   -0.79037933    0.27606597

 












