#b3lyp/gen SCRF=solvent=pyridine EmpiricalDispersion=GD3BJ NMR=(readatoms,mixed)

NMR incl J-coupling

0 1
 Si                 0.00000000    0.00000000    0.00000000
 C                  1.08920500    1.08920500    1.08920500
 H                  0.48449400    1.73406600    1.73406600
 H                  1.73406600    0.48449400    1.73406600
 H                  1.73406600    1.73406600    0.48449400
 C                 -1.08920500   -1.08920500    1.08920500
 H                 -1.73406600   -0.48449400    1.73406600
 H                 -1.73406600   -1.73406600    0.48449400
 H                 -0.48449400   -1.73406600    1.73406600
 C                 -1.08920500    1.08920500   -1.08920500
 H                 -0.48449400    1.73406600   -1.73406600
 H                 -1.73406600    0.48449400   -1.73406600
 H                 -1.73406600    1.73406600   -0.48449400
 C                  1.08920500   -1.08920500   -1.08920500
 H                  1.73406600   -1.73406600   -0.48449400
 H                  0.48449400   -1.73406600   -1.73406600
 H                  1.73406600   -0.48449400   -1.73406600

H     0 
S   3   1.00
     68.1600000              0.25500000E-02   
     10.2465000              0.19380000E-01   
      2.3464800              0.92800000E-01   
S   1   1.00
      0.67332000             1.0000000        
S   1   1.00
      0.22466000             1.0000000        
S   1   1.00
      0.08221700             1.0000000        
P   1   1.00
      0.3300000              1.0000000        
P   1   1.00
      1.3000000              1.0000000        
****
C     0 
S   5   1.00
  16371.0740000              0.22641833E-03   
   2426.9925000              0.17844680E-02   
    544.5441800              0.94901567E-02   
    150.8048700              0.39660515E-01   
     47.7081430              0.13134026       
S   1   1.00
     16.4572410              1.0000000        
S   1   1.00
      6.0845578              1.0000000        
S   1   1.00
      2.3824631              1.0000000        
S   1   1.00
      0.6619866              1.0000000        
S   1   1.00
      0.24698997             1.0000000        
S   1   1.00
      0.0949873              1.0000000        
P   2   1.00
     40.7904230              0.40969752E-02   
      9.5034633              0.27584766E-01   
P   1   1.00
      2.9408357              1.0000000        
P   1   1.00
      1.0751115              1.0000000        
P   1   1.00
      0.4267024              1.0000000        
P   1   1.00
      0.17481926             1.0000000        
P   1   1.00
      0.07113054             1.0000000        
D   1   1.00
      0.3500000              1.0000000        
D   1   1.00
      1.4000000              1.0000000        
****
Si     0 
S   5   1.00
  69989.3000000              0.31440692E-03   
  10380.2000000              0.24914300E-02   
   2330.0100000              0.13035420E-01   
    657.4660000              0.52270037E-01   
    214.0040000              0.16151425       
S   1   1.00
     77.6064000              1.0000000        
S   1   1.00
     30.6395000              1.0000000        
S   1   1.00
     12.8156000              1.0000000        
S   1   1.00
      3.9271400              1.0000000        
S   1   1.00
      1.4522100              1.0000000        
S   1   1.00
      0.2576440              1.0000000        
S   1   1.00
      0.0944040              1.0000000        
P   2   1.00
    401.6049000              0.26089308E-02   
     95.3524260              0.20258858E-01   
P   1   1.00
     30.3342200              1.0000000        
P   1   1.00
     10.9437270              1.0000000        
P   1   1.00
      4.0416822              1.0000000        
P   1   1.00
      1.4615479              1.0000000        
P   1   1.00
      0.33021241             1.0000000        
P   1   1.00
      0.09522172             1.0000000        
D   1   1.00
      0.1500000              1.0000000        
D   1   1.00
      0.6000000              1.0000000        
D   1   1.00
      2.4000000              1.0000000        
****

atoms=1,6,15




